Metadata-Version: 2.1
Name: mfpymake
Version: 1.2.7
Summary: pymake is a Python package to compile MODFLOW-based models.
Home-page: https://github.com/modflowpy/pymake
Download-URL: https://pypi.org/project/mfpymake
Author: Joseph D. Hughes
Author-email: modflow@usgs.gov
Maintainer: Joseph D. Hughes
Maintainer-email: jdhughes@usgs.gov
License: CC0
Project-URL: Documentation, https://mfpymake.readthedocs.io
Project-URL: Bug Tracker, https://github.com/modflowpy/pymake/issues
Project-URL: Source Code, https://github.com/modflowpy/pymake
Keywords: MODFLOW,groundwater,hydrogeology
Platform: Windows
Platform: Mac OS-X
Platform: Linux
Classifier: Development Status :: 5 - Production/Stable
Classifier: Intended Audience :: Science/Research
Classifier: License :: CC0 1.0 Universal (CC0 1.0) Public Domain Dedication
Classifier: Programming Language :: Python
Classifier: Programming Language :: Python :: 3 :: Only
Classifier: Topic :: Scientific/Engineering :: Hydrology
Requires-Python: >=3.7
Description-Content-Type: text/markdown
License-File: LICENSE.md
Requires-Dist: numpy
Requires-Dist: requests
Requires-Dist: networkx (>=2.6.3)
Requires-Dist: meson
Requires-Dist: ninja
Requires-Dist: pydotplus

